Version 4.1
SHEET 1 880 680
WIRE 32 32 -16 32
WIRE 160 32 112 32
WIRE 32 96 32 32
WIRE 32 96 -16 96
WIRE 160 96 160 32
WIRE 160 96 112 96
WIRE -16 224 -16 96
WIRE 32 240 32 96
WIRE 160 240 160 96
WIRE 32 304 32 240
WIRE 160 304 160 240
WIRE 32 400 32 304
WIRE 160 400 160 304
FLAG 32 400 0
FLAG 160 400 0
FLAG 32 32 Vdd
FLAG 160 32 Vdd
SYMBOL nmos 32 224 R0
SYMATTR InstName M2
SYMBOL pmos 32 160 R0
SYMATTR InstName M1
SYMBOL nmos 160 224 R0
SYMATTR InstName M4
SYMBOL pmos 160 160 R0
SYMATTR InstName M3
